OpenDSS_files/IEEE33bus_Curr_Seq.Txt

SYMMETRICAL COMPONENT CURRENTS BY CIRCUIT ELEMENT (first 3 phases)

Element          Term      I1         I2         %I2/I1    I0         %I0/I1   %Normal %Emergency

"VSOURCE.SOURCE"   1      353.96            0     0.00           0     0.00      0.00     0.00
   -               2      353.96            0     0.00           0     0.00      0.00     0.00
"LINE.LINE1" ...   1      353.96            0     0.00           0     0.00     88.49    58.99
   -               2      353.96            0     0.00           0     0.00      0.00     0.00
"LINE.LINE2" ...   1      313.74            0     0.00           0     0.00     78.44    52.29
   -               2      313.75            0     0.00           0     0.00      0.00     0.00
"LINE.LINE3" ...   1      222.84            0     0.00           0     0.00     55.71    37.14
   -               2      222.85            0     0.00           0     0.00      0.00     0.00
"LINE.LINE4" ...   1      211.18            0     0.00           0     0.00     52.80    35.20
   -               2      211.19            0     0.00           0     0.00      0.00     0.00
"LINE.LINE5" ...   1      205.79            0     0.00           0     0.00     51.45    34.30
   -               2       205.8            0     0.00           0     0.00      0.00     0.00
"LINE.LINE6" ...   1      96.877            0     0.00           0     0.00     24.22    16.15
   -               2      96.884            0     0.00           0     0.00      0.00     0.00
"LINE.LINE7" ...   1      78.331            0     0.00           0     0.00     19.58    13.06
   -               2      78.338            0     0.00           0     0.00      0.00     0.00
"LINE.LINE8" ...   1      59.887            0     0.00           0     0.00     14.97     9.98
   -               2      59.893            0     0.00           0     0.00      0.00     0.00
"LINE.LINE9" ...   1      54.743            0     0.00           0     0.00     13.69     9.12
   -               2       54.75            0     0.00           0     0.00      0.00     0.00
"LINE.LINE10" ..   1      49.639            0     0.00           0     0.00     12.41     8.27
   -               2      49.646            0     0.00           0     0.00      0.00     0.00
"LINE.LINE11" ..   1      45.288            0     0.00           0     0.00     11.32     7.55
   -               2      45.295            0     0.00           0     0.00      0.00     0.00
"LINE.LINE12" ..   1      39.677            0     0.00           0     0.00      9.92     6.61
   -               2      39.683            0     0.00           0     0.00      0.00     0.00
"LINE.LINE13" ..   1      34.111            0     0.00           0     0.00      8.53     5.69
   -               2      34.117            0     0.00           0     0.00      0.00     0.00
"LINE.LINE14" ..   1      22.785            0     0.00           0     0.00      5.70     3.80
   -               2       22.79            0     0.00           0     0.00      0.00     0.00
"LINE.LINE15" ..   1      17.977            0     0.00           0     0.00      4.49     3.00
   -               2      17.983            0     0.00           0     0.00      0.00     0.00
"LINE.LINE16" ..   1      12.915            0     0.00           0     0.00      3.23     2.15
   -               2       12.92            0     0.00           0     0.00      0.00     0.00
"LINE.LINE17" ..   1       7.872            0     0.00           0     0.00      1.97     1.31
   -               2       7.878            0     0.00           0     0.00      0.00     0.00
"LINE.LINE18" ..   1      31.299            0     0.00           0     0.00      7.82     5.22
   -               2      31.305            0     0.00           0     0.00      0.00     0.00
"LINE.LINE19" ..   1      23.499            0     0.00           0     0.00      5.87     3.92
   -               2      23.506            0     0.00           0     0.00      0.00     0.00
"LINE.LINE20" ..   1      15.672            0     0.00           0     0.00      3.92     2.61
   -               2      15.678            0     0.00           0     0.00      0.00     0.00
"LINE.LINE21" ..   1      7.8383            0     0.00           0     0.00      1.96     1.31
   -               2      7.8448            0     0.00           0     0.00      0.00     0.00
"LINE.LINE22" ..   1      83.906            0     0.00           0     0.00     20.98    13.98
   -               2      83.913            0     0.00           0     0.00      0.00     0.00
"LINE.LINE23" ..   1      75.628            0     0.00           0     0.00     18.91    12.60
   -               2      75.635            0     0.00           0     0.00      0.00     0.00
"LINE.LINE24" ..   1      37.879            0     0.00           0     0.00      9.47     6.31
   -               2      37.885            0     0.00           0     0.00      0.00     0.00
"LINE.LINE25" ..   1      106.98            0     0.00           0     0.00     26.75    17.83
   -               2      106.99            0     0.00           0     0.00      0.00     0.00
"LINE.LINE26" ..   1      102.04            0     0.00           0     0.00     25.51    17.01
   -               2      102.05            0     0.00           0     0.00      0.00     0.00
"LINE.LINE27" ..   1      97.161            0     0.00           0     0.00     24.29    16.19
   -               2      97.173            0     0.00           0     0.00      0.00     0.00
"LINE.LINE28" ..   1      92.716            0     0.00           0     0.00     23.18    15.45
   -               2      92.727            0     0.00           0     0.00      0.00     0.00
"LINE.LINE29" ..   1      82.203            0     0.00           0     0.00     20.55    13.70
   -               2      82.215            0     0.00           0     0.00      0.00     0.00
"LINE.LINE30" ..   1      37.711            0     0.00           0     0.00      9.43     6.29
   -               2      37.718            0     0.00           0     0.00      0.00     0.00
"LINE.LINE31" ..   1      24.415            0     0.00           0     0.00      6.10     4.07
   -               2      24.422            0     0.00           0     0.00      0.00     0.00
"LINE.LINE32" ..   1      5.7824            0     0.00           0     0.00      1.45     0.96
   -               2      5.7907            0     0.00           0     0.00      0.00     0.00
"LOAD.LOAD1" ...   1      9.2383            0     0.00           0     0.00      0.00     0.00
"LOAD.LOAD2" ...   1      7.9103            0     0.00           0     0.00      0.00     0.00
"LOAD.LOAD3" ...   1      11.668            0     0.00           0     0.00      0.00     0.00
"LOAD.LOAD4" ...   1      5.4668            0     0.00           0     0.00      0.00     0.00
"LOAD.LOAD5" ...   1       5.249            0     0.00           0     0.00      0.00     0.00
"LOAD.LOAD6" ...   1      18.557            0     0.00           0     0.00      0.00     0.00
"LOAD.LOAD7" ...   1      18.458            0     0.00           0     0.00      0.00     0.00
"LOAD.LOAD8" ...   1      5.1844            0     0.00           0     0.00      0.00     0.00
"LOAD.LOAD9" ...   1       5.151            0     0.00           0     0.00      0.00     0.00
"LOAD.LOAD10" ..   1      4.4006            0     0.00           0     0.00      0.00     0.00
"LOAD.LOAD11" ..   1      5.6425            0     0.00           0     0.00      0.00     0.00
"LOAD.LOAD12" ..   1      5.6041            0     0.00           0     0.00      0.00     0.00
"LOAD.LOAD13" ..   1      11.606            0     0.00           0     0.00      0.00     0.00
"LOAD.LOAD14" ..   1      4.8874            0     0.00           0     0.00      0.00     0.00
"LOAD.LOAD15" ..   1      5.0739            0     0.00           0     0.00      0.00     0.00
"LOAD.LOAD16" ..   1      5.0624            0     0.00           0     0.00      0.00     0.00
"LOAD.LOAD17" ..   1       7.878            0     0.00           0     0.00      0.00     0.00
"LOAD.LOAD18" ..   1      7.8062            0     0.00           0     0.00      0.00     0.00
"LOAD.LOAD19" ..   1      7.8343            0     0.00           0     0.00      0.00     0.00
"LOAD.LOAD20" ..   1      7.8398            0     0.00           0     0.00      0.00     0.00
"LOAD.LOAD21" ..   1      7.8448            0     0.00           0     0.00      0.00     0.00
"LOAD.LOAD22" ..   1      8.2994            0     0.00           0     0.00      0.00     0.00
"LOAD.LOAD23" ..   1      37.756            0     0.00           0     0.00      0.00     0.00
"LOAD.LOAD24" ..   1      37.885            0     0.00           0     0.00      0.00     0.00
"LOAD.LOAD25" ..   1      5.4039            0     0.00           0     0.00      0.00     0.00
"LOAD.LOAD26" ..   1      5.3887            0     0.00           0     0.00      0.00     0.00
"LOAD.LOAD27" ..   1      5.1772            0     0.00           0     0.00      0.00     0.00
"LOAD.LOAD28" ..   1      11.268            0     0.00           0     0.00      0.00     0.00
"LOAD.LOAD29" ..   1      51.094            0     0.00           0     0.00      0.00     0.00
"LOAD.LOAD30" ..   1       13.31            0     0.00           0     0.00      0.00     0.00
"LOAD.LOAD31" ..   1      18.684            0     0.00           0     0.00      0.00     0.00
"LOAD.LOAD32" ..   1      5.7907            0     0.00           0     0.00      0.00     0.00
